reduced_networks/ieee8500/41pct/dss/Shunts.dss
! Kron-equivalent grounded shunts
new Reactor.sh_2 phases=3 bus1=_hvmv_sub_lsb.1.2.3 bus2=_hvmv_sub_lsb.0.0.0 rmatrix=[-924.3571513226796 | -24993.25990980879 -17593.5564023222 | -10405.47959325864 -16352.26636783743 36132.50931152302] xmatrix=[-37447701.04315116 | -14831537.04604576 -37787168.27578534 | -13602068.03720109 -16063887.24914464 -37493615.90267107]
new Reactor.sh_3 phases=3 bus1=m1009763.1.2.3 bus2=m1009763.0.0.0 rmatrix=[0.1437778982125051 | -0.1613480497000788 -0.1361876384390754 | -0.0151791814726772 0.01519328946441406 -0.1462536314526504] xmatrix=[-3272193.069388886 | -944707.0874548776 -2741624.963700493 | -983791.3233375687 -1021766.495476377 -3259524.276669474]
new Reactor.sh_4 phases=1 bus1=l2673322.2 bus2=l2673322.0 rmatrix=[0.3638925761869781] xmatrix=[-10120605.43610242]
new Reactor.sh_5 phases=1 bus1=m1069148.3 bus2=m1069148.0 rmatrix=[0.122869940076064] xmatrix=[-4158413.974805139]
new Reactor.sh_6 phases=1 bus1=l2673309.3 bus2=l2673309.0 rmatrix=[-0.05437591161115214] xmatrix=[-7824438.235866831]
new Reactor.sh_7 phases=1 bus1=m1069588.2 bus2=m1069588.0 rmatrix=[0] xmatrix=[-5786615.876782436]
new Reactor.sh_8 phases=1 bus1=l2804270.2 bus2=l2804270.0 rmatrix=[0] xmatrix=[-8360952.972889153]
new Reactor.sh_9 phases=1 bus1=m3036164.2 bus2=m3036164.0 rmatrix=[0] xmatrix=[-3822539.532519788]
new Reactor.sh_10 phases=1 bus1=l2935553.2 bus2=l2935553.0 rmatrix=[0.03912730843243768] xmatrix=[-4693262.884734984]
new Reactor.sh_11 phases=1 bus1=l2748840.2 bus2=l2748840.0 rmatrix=[-0.006608890642911737] xmatrix=[-3857706.312902453]
new Reactor.sh_12 phases=3 bus1=l3085398.1.2.3 bus2=l3085398.0.0.0 rmatrix=[0.0514182964407805 | 0.01379145121340913 0.003380249555786349 | 0.002615143742347361 -0.0003805685683337667 -0.003538120307234469] xmatrix=[-5866834.739559967 | -2035640.740356348 -5907613.342941618 | -1866022.460601954 -2201686.925872126 -5866836.761715913]
new Reactor.sh_13 phases=3 bus1=m1026891.1.2.3 bus2=m1026891.0.0.0 rmatrix=[0.01074355741342685 | 0.0006190229187798633 0.02389600383401196 | -0.1226771325603793 -0.1435350147282141 -0.4243636170269098] xmatrix=[-4773306.024879938 | -1626457.002425712 -4792722.779536159 | -1417247.800767552 -1672185.640195335 -4455874.332668443]
new Reactor.sh_14 phases=3 bus1=l3216367.1.2.3 bus2=l3216367.0.0.0 rmatrix=[0.08491463109992661 | -0.04427164421223313 -0.221985124092918 | 0.004909997821585337 -0.08019847487870842 -0.02431242567998449] xmatrix=[-5747181.198596373 | -2136439.567887026 -5789975.463030434 | -1958426.44720992 -2310711.320307501 -5747181.622894192]
new Reactor.sh_15 phases=3 bus1=m1069468.1.2.3 bus2=m1069468.0.0.0 rmatrix=[-1.400816542632583 | -0.4636855202026788 -0.4249219076617238 | -0.3256904934861687 -0.2090962220479213 0.003818385406506586] xmatrix=[-6024999.174691207 | -2239714.783415911 -6728852.661494242 | -2053096.36471774 -2631182.528183069 -6695075.241612814]
new Reactor.sh_16 phases=3 bus1=m1047592.1.2.3 bus2=m1047592.0.0.0 rmatrix=[0.2442853103045745 | 0.1977089781068164 0.2628111273152985 | 0.3515462555765237 0.4209243486404153 0.9061617011420176] xmatrix=[-2924466.091426486 | -1038719.312060587 -2923197.72012702 | -841163.6436662551 -992473.5328267957 -2468471.631343135]
new Reactor.sh_17 phases=3 bus1=m1047339.1.2.3 bus2=m1047339.0.0.0 rmatrix=[-1.316869594753407 | -0.4667084073352364 -0.1995015894724919 | -0.4313388503581619 -0.1537020135513057 -0.1386678696522654] xmatrix=[-2963999.271407015 | -1028431.50323096 -5112302.504049812 | -942738.1940581318 -1748108.88084165 -5121165.327485392]
new Reactor.sh_18 phases=3 bus1=m1026915.1.2.3 bus2=m1026915.0.0.0 rmatrix=[0.4768500692391536 | 1.27416575858251 3.463283347348254 | 0.4963114912608814 1.330521204498304 0.3972781279704454] xmatrix=[-7146287.026023204 | -2242763.291290333 -6335100.280630396 | -2199997.749487772 -2425701.124417092 -6935555.925340846]
new Reactor.sh_19 phases=3 bus1=m1026920.1.2.3 bus2=m1026920.0.0.0 rmatrix=[0.04136430620398348 | 0.09054139942861504 0.2185099520273503 | 0.0763659564383903 0.1427121033080089 0.1703808038254521] xmatrix=[-6057233.006159282 | -1815756.325103834 -5128940.017676685 | -1838469.203810279 -1963864.019379963 -5871852.283439212]
new Reactor.sh_20 phases=1 bus1=l3254207.1 bus2=l3254207.0 rmatrix=[-0.6345907982900461] xmatrix=[-7716247.57761355]
new Reactor.sh_21 phases=3 bus1=m1069464.1.2.3 bus2=m1069464.0.0.0 rmatrix=[-0.0187299416460539 | -0.003821778064470246 0.06739016129833005 | -0.05444679757741651 -0.0368956551241973 -0.1683941374465635] xmatrix=[-4886287.730754198 | -1410886.313047287 -3823650.082550988 | -1536592.536845268 -1525973.912157647 -4856841.650761019]
new Reactor.sh_22 phases=1 bus1=l2729406.3 bus2=l2729406.0 rmatrix=[0] xmatrix=[-2523352.695076771]
new Reactor.sh_23 phases=1 bus1=l2897768.3 bus2=l2897768.0 rmatrix=[0] xmatrix=[-4307825.615801787]
new Reactor.sh_24 phases=1 bus1=l3649301.1 bus2=l3649301.0 rmatrix=[0.1535329306844186] xmatrix=[-6573863.258977206]
new Reactor.sh_25 phases=1 bus1=l3649302.1 bus2=l3649302.0 rmatrix=[0] xmatrix=[-6490997.735689271]
new Reactor.sh_26 phases=1 bus1=m1089113.2 bus2=m1089113.0 rmatrix=[-0.007820337602910562] xmatrix=[-1211398.462389336]
new Reactor.sh_27 phases=3 bus1=m1047312.1.2.3 bus2=m1047312.0.0.0 rmatrix=[0.9035743394906885 | 0.3950162682211968 -0.2139684273094646 | 0.9564533823788356 -0.2467054828114628 -0.02402372445265755] xmatrix=[-5409680.805974562 | -1877020.036729313 -5710542.056288691 | -1720619.093158673 -2108793.856287847 -5676589.067507236]
new Reactor.sh_28 phases=3 bus1=l2822871.1.2.3 bus2=l2822871.0.0.0 rmatrix=[-0.06275638269383177 | -0.1013215330397619 0.04478379733109539 | -0.02796956764305236 0.01780345742458311 0.007469945607293083] xmatrix=[-2660220.885620439 | -988902.2593847675 -2680029.303193348 | -906504.7007390819 -1069568.237666074 -2660221.197490423]
new Reactor.sh_29 phases=1 bus1=l2973163.2 bus2=l2973163.0 rmatrix=[-595.3822730466909] xmatrix=[-2413555.758828918]
new Reactor.sh_30 phases=1 bus1=l3728038.1 bus2=l3728038.0 rmatrix=[0] xmatrix=[-9852234.038159922]
new Reactor.sh_31 phases=1 bus1=l3728039.1 bus2=l3728039.0 rmatrix=[0] xmatrix=[-5856338.480406092]
new Reactor.sh_32 phases=1 bus1=m1069567.2 bus2=m1069567.0 rmatrix=[0.01248951610101996] xmatrix=[-2651598.08382498]
new Reactor.sh_33 phases=1 bus1=m1069582.2 bus2=m1069582.0 rmatrix=[0.1276591841100522] xmatrix=[-2119341.463879962]
new Reactor.sh_34 phases=1 bus1=l3216351.1 bus2=l3216351.0 rmatrix=[-12.8512181148838] xmatrix=[-16074150.32057082]
new Reactor.sh_35 phases=1 bus1=l2952007.3 bus2=l2952007.0 rmatrix=[0] xmatrix=[-3028587.128783455]
new Reactor.sh_36 phases=1 bus1=l2861158.3 bus2=l2861158.0 rmatrix=[0] xmatrix=[-6630342.020780804]
new Reactor.sh_37 phases=3 bus1=m1026726.1.2.3 bus2=m1026726.0.0.0 rmatrix=[-3.127506218502703 | 0.4965523739887473 0.04392633932347767 | -0.6845687526313833 -0.4919170268136891 -1.457667414039238] xmatrix=[-8865713.88734117 | -985014.2153269487 -2821796.132818661 | -2212790.391254631 -1065375.313063949 -8721628.447529959]
new Reactor.sh_38 phases=3 bus1=l2730106.1.2.3 bus2=l2730106.0.0.0 rmatrix=[-0.7386299552819291 | -0.3492619911083114 -0.7490672263375752 | -0.6458617100685438 -0.594645201583914 -0.4123889433076057] xmatrix=[-4174116.129229243 | -1654953.801064759 -4207261.946655545 | -1517062.021024593 -1789949.531005187 -4174118.859133509]
new Reactor.sh_39 phases=3 bus1=m1026658.1.2.3 bus2=m1026658.0.0.0 rmatrix=[-0.06051274336414101 | -0.05485511107293048 -0.2070886064602809 | -0.02936435368007731 -0.0736410868757362 -0.02830023339808203] xmatrix=[-3899047.113774903 | -1352869.056745215 -7513987.351614916 | -1240142.208919954 -2535321.438807475 -7536570.643867414]
new Reactor.sh_40 phases=1 bus1=l3172805.1 bus2=l3172805.0 rmatrix=[-0.05205483369717538] xmatrix=[-7655620.936610896]
new Reactor.sh_41 phases=1 bus1=l3048962.1 bus2=l3048962.0 rmatrix=[4.020418722848132] xmatrix=[-23787047.59219646]
new Reactor.sh_42 phases=3 bus1=l2991914.1.2.3 bus2=l2991914.0.0.0 rmatrix=[0.2509631207909432 | 0.4138350249078502 0.9653609654786244 | 0.1150362243589637 0.2642239944832474 0.3070850847865657] xmatrix=[-4780713.286279344 | -1658784.037078618 -4813943.256002 | -1520567.197552759 -1794090.931641081 -4780715.60386005]
new Reactor.sh_43 phases=1 bus1=l2973154.1 bus2=l2973154.0 rmatrix=[-1.337225339626779] xmatrix=[-5721017.477999792]
new Reactor.sh_44 phases=1 bus1=l3010565.3 bus2=l3010565.0 rmatrix=[-0.006506151244086734] xmatrix=[-2706524.57778279]
new Reactor.sh_45 phases=1 bus1=l2897775.3 bus2=l2897775.0 rmatrix=[0.02987201760492256] xmatrix=[-5799388.114501657]
new Reactor.sh_46 phases=1 bus1=m1125955.3 bus2=m1125955.0 rmatrix=[-0.1900503754587256] xmatrix=[-4222733.114831181]
new Reactor.sh_47 phases=1 bus1=m1069640.2 bus2=m1069640.0 rmatrix=[0.01055766164381553] xmatrix=[-2437916.165234735]
new Reactor.sh_48 phases=1 bus1=l2804269.2 bus2=l2804269.0 rmatrix=[-0.04694274287275955] xmatrix=[-5140662.898204274]
new Reactor.sh_49 phases=3 bus1=m1026702.1.2.3 bus2=m1026702.0.0.0 rmatrix=[-0.05794824563446944 | 0.004769545011291738 -0.2140122271831411 | -0.007484722862174765 -0.1339423067861057 0.1093671263549704] xmatrix=[-1676405.05378415 | -583332.1876850106 -1688083.990904793 | -534723.4578302862 -630917.3394006122 -1676401.787411884]
new Reactor.sh_50 phases=1 bus1=l2783231.2 bus2=l2783231.0 rmatrix=[0.1267415428666332] xmatrix=[-3313124.147861757]
new Reactor.sh_51 phases=1 bus1=l2748143.1 bus2=l2748143.0 rmatrix=[-0.2488535737322061] xmatrix=[-8369352.053486542]
new Reactor.sh_52 phases=1 bus1=l3251854.1 bus2=l3251854.0 rmatrix=[0.2635018808985064] xmatrix=[-12179424.08900571]
new Reactor.sh_53 phases=1 bus1=m1069610.2 bus2=m1069610.0 rmatrix=[30758.90532244794] xmatrix=[-3662017.052636943]
new Reactor.sh_54 phases=3 bus1=m1069424.1.2.3 bus2=m1069424.0.0.0 rmatrix=[-0.6740920282459067 | -0.249450832072282 -0.2460576671774537 | -0.2457900557427624 -0.2535056759169069 -0.2002508876679774] xmatrix=[-2851256.708813225 | -1059917.377650605 -4478199.515285301 | -971602.6288977575 -1655074.596022804 -4483980.796394959]
new Reactor.sh_55 phases=3 bus1=l2935549.1.2.3 bus2=l2935549.0.0.0 rmatrix=[0.0003099459124532698 | 0.002818538513376214 -0.008224602935441123 | -0.003799085522531839 -0.01171892973780604 0.03117311343656282] xmatrix=[-4205734.769927898 | -1563426.890550085 -4237051.085229916 | -1433158.567616012 -1690957.372679251 -4205735.087729691]
new Reactor.sh_56 phases=1 bus1=l3235242.3 bus2=l3235242.0 rmatrix=[0.1386650764357286] xmatrix=[-2550514.628025184]
new Reactor.sh_57 phases=3 bus1=m1026795.1.2.3 bus2=m1026795.0.0.0 rmatrix=[-63113.21176851571 | -16172.5889476315 -63629.77561731565 | -10429.97044446346 -16518.10157248498 -50364.02788978997] xmatrix=[-3278324.46565805 | -1080808.107576756 -3285192.554464682 | -916635.2168540091 -1085547.911681549 -2959639.778955494]
new Reactor.sh_58 phases=3 bus1=l3030199.1.2.3 bus2=l3030199.0.0.0 rmatrix=[0.1886228696590386 | 0.03669266110148626 0.1677761820513697 | -0.09802353781748288 0.1766982423240219 0.1172639353546547] xmatrix=[-4003725.119143627 | -1587397.744944374 -4035518.502985349 | -1455135.045276982 -1716882.941527368 -4003727.782928783]
new Reactor.sh_59 phases=3 bus1=m1069189.1.2.3 bus2=m1069189.0.0.0 rmatrix=[-717.3759372677736 | -720.8557206101915 -680.2561503317286 | -567.7793737487135 -535.3402297175894 -444.5192720690308] xmatrix=[-4007581.968317025 | -1286128.00321349 -3987107.118727311 | -920312.7760239479 -1085837.77069237 -2893288.907511486]
new Reactor.sh_60 phases=1 bus1=l2860487.3 bus2=l2860487.0 rmatrix=[0] xmatrix=[-9645638.925133087]
new Reactor.sh_61 phases=1 bus1=l3102286.2 bus2=l3102286.0 rmatrix=[0.05274466165097558] xmatrix=[-410158.573881488]
new Reactor.sh_62 phases=3 bus1=f739845.1.2.3 bus2=f739845.0.0.0 rmatrix=[101.9227855362929 | 67.76792225448499 106.3410072862833 | 63.65058242547661 71.75350341621103 103.6013815742841] xmatrix=[-27118010.04645711 | -9358331.457108766 -27300518.57509616 | -8576564.936203413 -10123670.77720638 -27115331.70386642]
new Reactor.sh_63 phases=3 bus1=293471.1.2.3 bus2=293471.0.0.0 rmatrix=[1.348605668068767 | 0.763464339530382 1.314575096119641 | 0.1722910017905238 0.1494752027653186 -1.002964346371095] xmatrix=[-27292410.50453231 | -9469763.86709848 -27482110.19204896 | -8680702.882614342 -10242207.67551953 -27292419.36061428]
new Reactor.sh_64 phases=1 bus1=l3198355.2 bus2=l3198355.0 rmatrix=[0.2831884452765847] xmatrix=[-2464381.866327737]
new Reactor.sh_65 phases=1 bus1=l2860504.1 bus2=l2860504.0 rmatrix=[-0.09644396234375109] xmatrix=[-3684193.398823512]
new Reactor.sh_66 phases=1 bus1=l2860493.1 bus2=l2860493.0 rmatrix=[-0.01352394838268846] xmatrix=[-2759222.024217948]
new Reactor.sh_67 phases=3 bus1=m1026783.1.2.3 bus2=m1026783.0.0.0 rmatrix=[-0.5357262094524318 | -0.2944750590209286 0.06231905159480933 | -0.1697756456059804 -0.0536076864288253 0.08830985962552829] xmatrix=[-1646092.795582137 | -555129.6294184555 -2265315.114647249 | -469199.6569665463 -719861.8647032692 -2039287.501933098]
new Reactor.sh_68 phases=3 bus1=m1026700.1.2.3 bus2=m1026700.0.0.0 rmatrix=[0.3132371758148151 | 0.1578954296963598 0.147614510939668 | -0.02823248935672776 -0.0935420841899982 -0.292322625266201] xmatrix=[-2894168.677428585 | -819772.4780322666 -2422918.522518337 | -802283.1281272846 -834109.6051851481 -2657119.412930485]
new Reactor.sh_69 phases=1 bus1=m1089173.3 bus2=m1089173.0 rmatrix=[609.9877293374585] xmatrix=[-947647.0892023102]
new Reactor.sh_70 phases=1 bus1=l2935551.3 bus2=l2935551.0 rmatrix=[0] xmatrix=[-9031913.460180353]
new Reactor.sh_71 phases=1 bus1=m1026344.1 bus2=m1026344.0 rmatrix=[0.01979689739306948] xmatrix=[-1669181.117974084]
new Reactor.sh_72 phases=3 bus1=l2879070.1.2.3 bus2=l2879070.0.0.0 rmatrix=[-0.02780005974221918 | -0.06337947652198025 -0.2043127482348355 | -0.04750037978734793 -0.08674976000407368 -0.04530685720795382] xmatrix=[-5476641.328215986 | -2035869.843883838 -5517421.148242356 | -1866236.344298478 -2201937.932950866 -5476641.424842818]
new Reactor.sh_73 phases=3 bus1=l3216345.1.2.3 bus2=l3216345.0.0.0 rmatrix=[0.1036338935082823 | 0.07313058498060092 0.04349535563393158 | 0.03076540007653746 0.02068578719049458 -0.04288843484103599] xmatrix=[-4702793.139344609 | -1748201.87244134 -4737810.653975846 | -1602537.621642455 -1890804.620486443 -4702793.340235679]
new Reactor.sh_74 phases=3 bus1=m1069428.1.2.3 bus2=m1069428.0.0.0 rmatrix=[-0.5021224370463184 | -1.009030393505292 -1.03748129860922 | -0.44232484644852 -0.4567299944835501 -0.2548902475357079] xmatrix=[-5928505.332247538 | -1186877.29592214 -3216562.674261969 | -1698034.043976769 -1283692.42125028 -5854660.701805166]
new Reactor.sh_75 phases=1 bus1=l2991919.1 bus2=l2991919.0 rmatrix=[0] xmatrix=[-3912602.764013167]
new Reactor.sh_76 phases=1 bus1=m1026361.1 bus2=m1026361.0 rmatrix=[-0.1647871850341208] xmatrix=[-4815779.736364987]
new Reactor.sh_77 phases=3 bus1=q14412.1.2.3 bus2=q14412.0.0.0 rmatrix=[8.046951814215197 | 23.46250009391662 68.40961936321264 | 8.704889340969608 25.38084876229948 9.416621373920176] xmatrix=[-24365741.09970504 | -8413188.259976041 -24530335.82178243 | -7710558.977528743 -9101070.132209474 -24363646.36932787]
new Reactor.sh_78 phases=3 bus1=m1047325.1.2.3 bus2=m1047325.0.0.0 rmatrix=[676.3888832170671 | 750.6369449769979 784.7715537874104 | 752.0170473359404 785.1504394762723 825.8924154782962] xmatrix=[-5438271.887744883 | -1886876.671271792 -6088429.590068979 | -1729628.480551129 -2223756.678129751 -6059079.321258622]
new Reactor.sh_79 phases=1 bus1=l3048227.1 bus2=l3048227.0 rmatrix=[8.524365211390338] xmatrix=[-24491812.40193539]
new Reactor.sh_80 phases=1 bus1=m1069469.1 bus2=m1069469.0 rmatrix=[0.6057684158654133] xmatrix=[-3489869.529524726]
new Reactor.sh_81 phases=1 bus1=l2785522.2 bus2=l2785522.0 rmatrix=[0.06981290085883349] xmatrix=[-1273054.11266276]
new Reactor.sh_82 phases=1 bus1=l3216338.2 bus2=l3216338.0 rmatrix=[0.0532165880171639] xmatrix=[-5473415.352750123]
new Reactor.sh_83 phases=1 bus1=l2973146.2 bus2=l2973146.0 rmatrix=[0] xmatrix=[-13941423.12090953]
new Reactor.sh_84 phases=1 bus1=m3037452.1 bus2=m3037452.0 rmatrix=[0.5408699011511782] xmatrix=[-4362358.059816575]
new Reactor.sh_85 phases=1 bus1=l2973164.1 bus2=l2973164.0 rmatrix=[0] xmatrix=[-11742833.7024802]
new Reactor.sh_86 phases=1 bus1=l3120376.1 bus2=l3120376.0 rmatrix=[-0.06499683057384865] xmatrix=[-4277263.295569088]
new Reactor.sh_87 phases=1 bus1=m1026925.1 bus2=m1026925.0 rmatrix=[0.1079900899510263] xmatrix=[-3898493.817854014]
new Reactor.sh_88 phases=1 bus1=l3141393.3 bus2=l3141393.0 rmatrix=[0.07089009496440525] xmatrix=[-3262210.933937917]
new Reactor.sh_89 phases=1 bus1=m1026940.2 bus2=m1026940.0 rmatrix=[0.006538795046336431] xmatrix=[-1356652.930538692]
new Reactor.sh_90 phases=1 bus1=m1047471.2 bus2=m1047471.0 rmatrix=[0] xmatrix=[-2707750.201821378]
new Reactor.sh_91 phases=1 bus1=l3216349.2 bus2=l3216349.0 rmatrix=[6.999526682253028] xmatrix=[-44386840.50676601]
new Reactor.sh_92 phases=1 bus1=m1047401.1 bus2=m1047401.0 rmatrix=[-0.03448200910900507] xmatrix=[-3115416.942774399]
new Reactor.sh_93 phases=1 bus1=l2748132.1 bus2=l2748132.0 rmatrix=[0.1857386606313861] xmatrix=[-997910.0557140835]
new Reactor.sh_94 phases=1 bus1=l3122820.1 bus2=l3122820.0 rmatrix=[0] xmatrix=[-6119206.87095314]
new Reactor.sh_95 phases=1 bus1=l3141398.1 bus2=l3141398.0 rmatrix=[-0.3357063272507741] xmatrix=[-13747212.83560999]
new Reactor.sh_96 phases=1 bus1=l3048968.3 bus2=l3048968.0 rmatrix=[-0.3355824589167823] xmatrix=[-2865963.14934047]
new Reactor.sh_97 phases=1 bus1=m1069224.3 bus2=m1069224.0 rmatrix=[-6231.360528844425] xmatrix=[-2350777.252565557]
new Reactor.sh_98 phases=1 bus1=l2766746.3 bus2=l2766746.0 rmatrix=[52677.45371064563] xmatrix=[-1282665.950305855]
new Reactor.sh_99 phases=1 bus1=m1027073.3 bus2=m1027073.0 rmatrix=[0.02120683882096467] xmatrix=[-2443193.493776759]
new Reactor.sh_100 phases=1 bus1=m1069181.1 bus2=m1069181.0 rmatrix=[0] xmatrix=[-3021163.448510494]
new Reactor.sh_101 phases=1 bus1=l2973151.1 bus2=l2973151.0 rmatrix=[-0.1079758870171788] xmatrix=[-5512940.265128544]
new Reactor.sh_102 phases=1 bus1=l3179682.3 bus2=l3179682.0 rmatrix=[0] xmatrix=[-10604110.21752983]
new Reactor.sh_103 phases=1 bus1=l2786274.3 bus2=l2786274.0 rmatrix=[0] xmatrix=[-30258809.10204145]
new Reactor.sh_104 phases=1 bus1=l3066816.1 bus2=l3066816.0 rmatrix=[50042.32634855939] xmatrix=[-995389.23741038]
new Reactor.sh_105 phases=3 bus1=m1108529.1.2.3 bus2=m1108529.0.0.0 rmatrix=[-0.1076655273512069 | -0.2284062696867383 -0.5595249077513215 | -0.1719779968343176 -0.2729429615192317 -0.3873501306198195] xmatrix=[-8155491.647563011 | -2519440.17640256 -7870089.441370783 | -787460.6647952098 -929108.0542019864 -2166656.098862324]
new Reactor.sh_106 phases=3 bus1=m1108532.1.2.3 bus2=m1108532.0.0.0 rmatrix=[0.00218355306317643 | 0.01745440606440025 0.07963201286139719 | -0.003967326043656485 -0.01016628393119361 -0.01506123572773209] xmatrix=[-1696227.233046998 | -613222.6187786782 -1558948.449776096 | -596640.3149759267 -663243.5646576937 -1691536.170847969]
new Reactor.sh_107 phases=1 bus1=l2766723.1 bus2=l2766723.0 rmatrix=[0] xmatrix=[-7134944.497444189]
new Reactor.sh_108 phases=1 bus1=l3122822.1 bus2=l3122822.0 rmatrix=[0.1913885700285975] xmatrix=[-14679385.98834726]
new Reactor.sh_109 phases=1 bus1=l2673312.1 bus2=l2673312.0 rmatrix=[0] xmatrix=[-3209207.675184421]
new Reactor.sh_110 phases=1 bus1=l3235247.1 bus2=l3235247.0 rmatrix=[0.0107166639997597] xmatrix=[-4912411.033601686]
new Reactor.sh_111 phases=1 bus1=m1166391.3 bus2=m1166391.0 rmatrix=[-0.06204832170196146] xmatrix=[-876181.7735858753]
new Reactor.sh_112 phases=1 bus1=l3254873.3 bus2=l3254873.0 rmatrix=[0.1274337836944035] xmatrix=[-5989108.549830699]
new Reactor.sh_113 phases=1 bus1=l2861157.3 bus2=l2861157.0 rmatrix=[46411.36223828526] xmatrix=[-1739533.343508204]
new Reactor.sh_114 phases=3 bus1=m1047346.1.2.3 bus2=m1047346.0.0.0 rmatrix=[0.1542626278387751 | -0.1365956112286925 -0.2817820380628221 | -0.02148359424335772 -0.008829379206220695 0.008155966127445579] xmatrix=[-8982417.114327118 | -2868427.968263436 -8930054.767532106 | -2014722.157975012 -2377135.072340053 -6334353.614934962]
new Reactor.sh_115 phases=3 bus1=m1047345.1.2.3 bus2=m1047345.0.0.0 rmatrix=[0.0720351352819842 | 0.03547929198539384 0.2059361520623158 | 0.05194440280672126 0.08725239972114657 0.2209624296402684] xmatrix=[-4518995.493784665 | -1567975.178899317 -8087076.697236598 | -1437324.800032885 -2752683.910871777 -8104642.726242092]
new Reactor.sh_116 phases=1 bus1=l2822873.2 bus2=l2822873.0 rmatrix=[-3949.484959504404] xmatrix=[-4347105.83797768]
new Reactor.sh_117 phases=1 bus1=m1108328.3 bus2=m1108328.0 rmatrix=[-353.7572058097945] xmatrix=[-1684298.165349399]
new Reactor.sh_118 phases=1 bus1=l2875754.3 bus2=l2875754.0 rmatrix=[0] xmatrix=[-38402145.46015672]
new Reactor.sh_119 phases=1 bus1=l2786204.3 bus2=l2786204.0 rmatrix=[-0.02936131819023582] xmatrix=[-4065581.444519456]
new Reactor.sh_120 phases=1 bus1=m1009726.1 bus2=m1009726.0 rmatrix=[-2183.548337954723] xmatrix=[-2586285.549877372]
new Reactor.sh_121 phases=1 bus1=m1047702.1 bus2=m1047702.0 rmatrix=[0] xmatrix=[-3712445.332655652]
new Reactor.sh_122 phases=3 bus1=l2767340.1.2.3 bus2=l2767340.0.0.0 rmatrix=[-1093.342783630045 | -1329.764695314047 -1569.829754281528 | -4397.123033120562 -5208.022244995793 -16555.17686111511] xmatrix=[-10398000.52263262 | -3162702.054948524 -10264357.61145038 | -1797607.596164239 -2120848.152864393 -5653507.787488035]
new Reactor.sh_123 phases=1 bus1=m1047457.2 bus2=m1047457.0 rmatrix=[0] xmatrix=[-5574537.824495533]
new Reactor.sh_124 phases=1 bus1=l2710546.2 bus2=l2710546.0 rmatrix=[-1.23392542981612] xmatrix=[-6212166.662345974]
new Reactor.sh_125 phases=3 bus1=l2674027.1.2.3 bus2=l2674027.0.0.0 rmatrix=[0.01514726234865275 | 0.002758542996605537 -0.01457721901419385 | 0.03304964419865555 -0.002589125653144465 0.06719692750719523] xmatrix=[-5012163.314597175 | -1987223.810117644 -5051965.082791788 | -1821647.40142292 -2149322.868096809 -5012167.003144304]
new Reactor.sh_126 phases=3 bus1=l2692633.1.2.3 bus2=l2692633.0.0.0 rmatrix=[-0.1364247889936147 | 0.0005096439402057576 0.1390058347365151 | -0.03130993058329622 0.04663931151353101 0.008384112461085794] xmatrix=[-6749994.258142116 | -2676239.581461841 -6803596.290926546 | -2453253.882928697 -2894541.861008031 -6749998.705039091]
new Reactor.sh_127 phases=1 bus1=l2674051.1 bus2=l2674051.0 rmatrix=[1.138663080736183] xmatrix=[-9244892.845718557]
new Reactor.sh_128 phases=3 bus1=m1069135.1.2.3 bus2=m1069135.0.0.0 rmatrix=[-0.8853801069720766 | 0.3298680596780686 -0.8874698862268091 | 0.286654196857364 0.3595759694630445 -0.9022593139824981] xmatrix=[267.7198057982012 | -0.3642474854498142 267.7136624558826 | -0.376731695817909 -0.3738713202603079 267.6970641722201]
new Reactor.sh_129 phases=3 bus1=m1047534.1.2.3 bus2=m1047534.0.0.0 rmatrix=[-0.2860796345142855 | -0.1490626558628596 -0.08464638699429672 | -0.1840887106243319 -0.1587281075578399 -0.271246262636731] xmatrix=[-2114114.122187043 | -766767.071396934 -2391875.077100327 | -659020.9401708546 -856807.1368373637 -2188288.214198924]
new Reactor.sh_130 phases=1 bus1=l3097861.3 bus2=l3097861.0 rmatrix=[0.1208812438623978] xmatrix=[-2850505.91289004]
new Reactor.sh_131 phases=1 bus1=m1069560.2 bus2=m1069560.0 rmatrix=[0.01449070961700446] xmatrix=[-2856141.512573665]
new Reactor.sh_132 phases=3 bus1=l2973153.1.2.3 bus2=l2973153.0.0.0 rmatrix=[-1.150132791786112 | -1.889523875579669 -2.053861543769903 | -2.028861206761624 -0.7728699438277378 0.263604043126211] xmatrix=[-7933168.469831898 | -2752603.713284514 -7988308.224387898 | -2523247.512869065 -2977133.455348696 -7933171.897085326]
new Reactor.sh_133 phases=1 bus1=l2898515.3 bus2=l2898515.0 rmatrix=[0.01855518965033536] xmatrix=[-3231972.043501584]
new Reactor.sh_134 phases=1 bus1=m1166387.3 bus2=m1166387.0 rmatrix=[0] xmatrix=[-3203801.203713723]
new Reactor.sh_135 phases=1 bus1=m1047442.2 bus2=m1047442.0 rmatrix=[-1935.41310731095] xmatrix=[-2552553.780965854]
new Reactor.sh_136 phases=1 bus1=l3235250.2 bus2=l3235250.0 rmatrix=[0] xmatrix=[-13008414.18640097]
new Reactor.sh_137 phases=3 bus1=m1142871.1.2.3 bus2=m1142871.0.0.0 rmatrix=[-0.2572746276076084 | -0.04789813237972471 -0.1206876705637336 | -0.1403254362401667 -0.02989800617037197 0.3810329043606391] xmatrix=[-2794756.931476196 | -1052599.431479878 -2789749.880915343 | -846665.0148506026 -998962.11956956 -2329555.062559782]
new Reactor.sh_138 phases=3 bus1=m1142874.1.2.3 bus2=m1142874.0.0.0 rmatrix=[0.02269863463873783 | 0.0505818764643941 -0.0486679049645355 | 0.1128357672376103 0.1163361653838919 0.2193995826685349] xmatrix=[-1963177.940340789 | -711465.0544439148 -1945962.080668267 | -509590.5768902274 -601255.0278995599 -1402111.478424833]
new Reactor.sh_139 phases=3 bus1=l2955081.1.2.3 bus2=l2955081.0.0.0 rmatrix=[-0.1462321417147767 | -0.008477498266562578 0.03096080183909883 | -0.06828565058068609 0.007382987812493372 -0.2977696912748302] xmatrix=[-3425990.132522421 | -1358337.352624131 -3453195.698579253 | -1245159.841790281 -1469137.791941862 -3425991.916893822]
new Reactor.sh_140 phases=3 bus1=m1108315.1.2.3 bus2=m1108315.0.0.0 rmatrix=[51.94594589092542 | 61.2952762984423 72.3656459983097 | 142.9371662770705 168.6621600428535 393.4153326438774] xmatrix=[-4020313.498622103 | -1326132.137574792 -3920891.010007833 | -644709.6037776559 -760679.1115749794 -1773884.681330946]
new Reactor.sh_141 phases=3 bus1=l2973162.1.2.3 bus2=l2973162.0.0.0 rmatrix=[0.1791592708326127 | 0.09329132494791763 0.1657596705237771 | 0.0977495720524483 0.08633530787167056 0.1700135142602621] xmatrix=[-6834420.750044355 | -2371368.190012367 -6881924.806011396 | -2173775.674749883 -2564799.520154354 -6834423.182345647]
new Reactor.sh_142 phases=3 bus1=m1026333.1.2.3 bus2=m1026333.0.0.0 rmatrix=[-0.2503577755483166 | -0.07728465655097597 0.1608047007447438 | -0.05309417731244728 0.04854556376488853 0.1809105537562826] xmatrix=[-4193577.830966278 | -1455063.63178122 -7934039.554300923 | -1333821.52999728 -2682747.994028435 -7956285.877212103]
new Reactor.sh_143 phases=1 bus1=m1009832.2 bus2=m1009832.0 rmatrix=[0.07065437378189696] xmatrix=[-3153366.314584396]
new Reactor.sh_144 phases=1 bus1=l2860479.2 bus2=l2860479.0 rmatrix=[0] xmatrix=[-23276595.41636526]
new Reactor.sh_145 phases=3 bus1=m1026854.1.2.3 bus2=m1026854.0.0.0 rmatrix=[-0.3667100174434171 | -0.05763846555140958 0.0403035194137517 | -0.07032442432313817 -0.03443831386275908 0.06225161415416164] xmatrix=[-1572936.34133701 | -584718.4975930466 -1619923.414823783 | -535998.354103215 -643589.8629634368 -1608804.752896154]
new Reactor.sh_146 phases=1 bus1=m1026485.2 bus2=m1026485.0 rmatrix=[1.347454417281368] xmatrix=[-5621941.396199748]
new Reactor.sh_147 phases=3 bus1=d6413567-3_int.1.2.3 bus2=d6413567-3_int.0.0.0 rmatrix=[34.78706650935609 | 11.06271308046146 -2.231542678754554 | 18.03205756484803 13.63264243589981 34.80674996739221] xmatrix=[-14159736.8955745 | -4899182.194640835 -14256549.00521889 | -4490423.441627298 -5299364.347978565 -14159056.73675573]
new Reactor.sh_148 phases=3 bus1=e182724.1.2.3 bus2=e182724.0.0.0 rmatrix=[0.9998696199976521 | 2.118281522712145 5.227621005301696 | 2.025627764032393 3.405336017179289 5.164799705390331] xmatrix=[-8926472.524352288 | -3091741.621814605 -8987877.682281373 | -2833906.511125492 -3344149.528244732 -8926185.145211289]
new Reactor.sh_149 phases=3 bus1=l2933135.1.2.3 bus2=l2933135.0.0.0 rmatrix=[17.28162323270996 | 12.00204287091971 10.58436765664646 | 5.563785602580444 13.1296180444316 -2.895376311757602] xmatrix=[-6293696.797155157 | -2495351.247577698 -6343674.444163135 | -2287420.544913898 -2698876.542365722 -6293655.53318802]
new Reactor.sh_150 phases=3 bus1=l2729414.1.2.3 bus2=l2729414.0.0.0 rmatrix=[0.04994609120659499 | 0.05893037922251361 0.06953075905110223 | 0.1528146962399614 0.1803029573142462 0.4675507250801975] xmatrix=[-16223693.89574938 | -5784546.06988901 -16339550.06430138 | -5302560.678816196 -6256383.709683096 -16223675.84383254]
new Reactor.sh_151 phases=1 bus1=l2729430.2 bus2=l2729430.0 rmatrix=[0.1205982772916247] xmatrix=[-5826267.864830242]
new Reactor.sh_152 phases=1 bus1=l2766742.2 bus2=l2766742.0 rmatrix=[-18858.74089091708] xmatrix=[-2974804.311645743]
new Reactor.sh_153 phases=1 bus1=l2860483.2 bus2=l2860483.0 rmatrix=[-0.1544315230604707] xmatrix=[-4662006.515524711]
new Reactor.sh_154 phases=3 bus1=l2860490.1.2.3 bus2=l2860490.0.0.0 rmatrix=[-0.1540697401452098 | -0.08280259465634922 -0.1161197763375876 | -0.08613968262060531 -0.09925992505487644 -0.06819614723690526] xmatrix=[-6179304.483907924 | -2144059.664657484 -6222254.927461403 | -1965407.481867587 -2318949.53425854 -6179306.626504757]
new Reactor.sh_155 phases=3 bus1=l3104134.1.2.3 bus2=l3104134.0.0.0 rmatrix=[0.149256530265619 | 0.005295324068890408 -0.02859330792750471 | -0.04041223835072084 -0.07732408771262568 -0.2054110722332203] xmatrix=[-7572861.52904371 | -2627588.119836225 -7625498.225009509 | -2408646.264358781 -2841919.168134544 -7572864.136834495]
new Reactor.sh_156 phases=3 bus1=m1089118.1.2.3 bus2=m1089118.0.0.0 rmatrix=[-0.003495432173610198 | -0.006988550907716381 -0.02001452658960836 | -0.008038735161586963 -0.01017458651371143 -0.0227854117109824] xmatrix=[-2848309.272201321 | -923640.4113199083 -3299520.272325807 | -686592.0175130237 -916844.5332958299 -2520848.779530808]
new Reactor.sh_157 phases=1 bus1=l3048208.1 bus2=l3048208.0 rmatrix=[-0.6094847718248921] xmatrix=[-18523213.0945328]
new Reactor.sh_158 phases=3 bus1=m1108505.1.2.3 bus2=m1108505.0.0.0 rmatrix=[-2.565866202701171 | -0.7193458438912174 -0.3253466155944067 | -0.7334503730207277 -0.3921962662959608 -0.060183059317795] xmatrix=[-3366399.779329013 | -1334710.310742375 -3626748.907895872 | -1223501.523570623 -1521769.382461503 -3604731.79732271]
new Reactor.sh_159 phases=3 bus1=l2955047.1.2.3 bus2=l2955047.0.0.0 rmatrix=[-0.3976118128956449 | -0.1225126129825845 0.09579324195412434 | -0.2023731411362836 -0.0238140048934702 -0.07997167039260544] xmatrix=[-7122333.39543288 | -2823864.639175099 -7178892.353395059 | -2588578.834135694 -3054208.72985964 -7122338.402363321]
new Reactor.sh_160 phases=1 bus1=m1089148.1 bus2=m1089148.0 rmatrix=[0.02291946956368761] xmatrix=[-2539932.522482215]
new Reactor.sh_161 phases=1 bus1=l2766721.1 bus2=l2766721.0 rmatrix=[0.5337260057587546] xmatrix=[-17333811.76714543]
new Reactor.sh_162 phases=1 bus1=l3029183.2 bus2=l3029183.0 rmatrix=[0.4594827511207308] xmatrix=[-2257623.290879338]
new Reactor.sh_163 phases=1 bus1=l2710512.2 bus2=l2710512.0 rmatrix=[-0.02527888861214218] xmatrix=[-3772366.541466205]
new Reactor.sh_164 phases=1 bus1=m1047828.2 bus2=m1047828.0 rmatrix=[-0.07215522478977063] xmatrix=[-3186682.453683491]
new Reactor.sh_165 phases=1 bus1=l3197645.1 bus2=l3197645.0 rmatrix=[-0.6454770880207175] xmatrix=[-4765575.099695789]
new Reactor.sh_166 phases=1 bus1=m1069192.1 bus2=m1069192.0 rmatrix=[0.06648229187106545] xmatrix=[-2497538.888823502]
new Reactor.sh_167 phases=1 bus1=l3235253.1 bus2=l3235253.0 rmatrix=[0] xmatrix=[-10015803.66420832]
new Reactor.sh_168 phases=3 bus1=l3214071.1.2.3 bus2=l3214071.0.0.0 rmatrix=[0.05735197180527145 | 0.05857244083018592 0.03778047021199965 | 0.1657692544710897 0.03121712280922129 0.1736074373376509] xmatrix=[-2544274.16687355 | -1008754.490695069 -2564478.288613919 | -924704.8184386801 -1091039.379159417 -2544276.230122369]
new Reactor.sh_169 phases=3 bus1=m1125952.1.2.3 bus2=m1125952.0.0.0 rmatrix=[-2.426975215771974 | -1.447749621224913 -0.6403281859279187 | -3.005350368516543 -3.55740425585517 -8.759220215736086] xmatrix=[-10412379.74468305 | -3734473.160869163 -10301933.15258769 | -2583836.143695369 -3048613.084731567 -7109291.468427348]
new Reactor.sh_170 phases=1 bus1=m1027101.2 bus2=m1027101.0 rmatrix=[0] xmatrix=[-2699188.337152706]
new Reactor.sh_171 phases=1 bus1=l2860480.2 bus2=l2860480.0 rmatrix=[0] xmatrix=[-4982758.407985074]
new Reactor.sh_172 phases=1 bus1=l2710517.1 bus2=l2710517.0 rmatrix=[0] xmatrix=[-5649923.15894423]
new Reactor.sh_173 phases=1 bus1=m1026646.1 bus2=m1026646.0 rmatrix=[0.0422999684477346] xmatrix=[-2439916.254028715]
new Reactor.sh_174 phases=1 bus1=l2935547.2 bus2=l2935547.0 rmatrix=[-4.827445280893837] xmatrix=[-6674652.439362529]
new Reactor.sh_175 phases=1 bus1=m1026931.1 bus2=m1026931.0 rmatrix=[0] xmatrix=[-5692134.415205785]
new Reactor.sh_176 phases=1 bus1=l3216336.1 bus2=l3216336.0 rmatrix=[-0.3708767194897627] xmatrix=[-7224697.775720908]
new Reactor.sh_177 phases=3 bus1=l3142049.1.2.3 bus2=l3142049.0.0.0 rmatrix=[-0.1074427916175019 | 0.207925546528883 0.09558436952182647 | 0.1687620564303965 0.2652902082087684 0.0007985352733411721] xmatrix=[-4108858.096011444 | -1629081.230819967 -4141486.356045837 | -1493345.429226972 -1761966.038809844 -4108860.785545768]
new Reactor.sh_178 phases=3 bus1=m1069169.1.2.3 bus2=m1069169.0.0.0 rmatrix=[-0.2591930082882933 | -0.09419390585149068 -0.01591463969458118 | -0.09332738856197845 -0.06371711940997921 -0.1123834821105555] xmatrix=[-2359608.402264321 | -818723.4108099383 -4717492.948941067 | -750503.8732686661 -1585176.295901651 -4733516.88977292]
new Reactor.sh_179 phases=3 bus1=l3010556.1.2.3 bus2=l3010556.0.0.0 rmatrix=[-0.05060468673713318 | -0.03703872127240124 -0.03391821803469786 | -0.03940695288649463 -0.05455879471738749 -0.09063977573005876] xmatrix=[-4633096.500405963 | -1607565.293013627 -4665299.762842506 | -1473616.089472752 -1738693.589106868 -4633098.095164282]
new Reactor.sh_180 phases=1 bus1=l2991933.3 bus2=l2991933.0 rmatrix=[-0.1484302549393017] xmatrix=[-5277587.988072917]
new Reactor.sh_181 phases=1 bus1=l3122837.3 bus2=l3122837.0 rmatrix=[0] xmatrix=[-3584878.004695722]
new Reactor.sh_182 phases=1 bus1=l2691936.1 bus2=l2691936.0 rmatrix=[-0.06369485368322132] xmatrix=[-5988072.692361115]
new Reactor.sh_183 phases=1 bus1=l2897772.1 bus2=l2897772.0 rmatrix=[-0.5731547060621529] xmatrix=[-4562522.04456362]
new Reactor.sh_184 phases=1 bus1=l2766732.2 bus2=l2766732.0 rmatrix=[0.409434763974019] xmatrix=[-7590969.656902307]
new Reactor.sh_185 phases=1 bus1=l2989564.2 bus2=l2989564.0 rmatrix=[-0.04259590697421309] xmatrix=[-4896872.853182206]
new Reactor.sh_186 phases=1 bus1=m1126016.1 bus2=m1126016.0 rmatrix=[-0.08750641757372966] xmatrix=[-3509335.177832523]
new Reactor.sh_187 phases=3 bus1=m1026330.1.2.3 bus2=m1026330.0.0.0 rmatrix=[0.2087979709021757 | -0.02244410090355602 -0.1115451246656289 | -0.03451731899748239 -0.1206417737746534 -0.2753691096883922] xmatrix=[-8320506.502818098 | -1248178.866139971 -3622327.889485489 | -2156739.775544427 -1349992.15039559 -8211606.357565474]
new Reactor.sh_188 phases=1 bus1=l2766726.2 bus2=l2766726.0 rmatrix=[0] xmatrix=[-27886361.41684979]
new Reactor.sh_189 phases=3 bus1=m1108381.1.2.3 bus2=m1108381.0.0.0 rmatrix=[0.3622157721523845 | -0.04609648906554346 0.0218670238347836 | -0.09015441373268421 -0.0173620188447485 -0.2698307638408895] xmatrix=[-1483528.142851544 | -164368.6406617798 -1464650.567231346 | -143103.2444660545 -187191.211941629 -1468183.654859635]
new Reactor.sh_190 phases=3 bus1=l3254237.1.2.3 bus2=l3254237.0.0.0 rmatrix=[-0.04616153679660299 | -0.008977705720398296 0.01694396830247478 | -0.01420441638023487 -0.002732209851413168 -0.02245982330698349] xmatrix=[-3780549.511750219 | -1335276.808495927 -3771740.900242154 | -1224018.055067524 -1444193.271925969 -3744994.038617662]
new Reactor.sh_191 phases=1 bus1=l2804262.1 bus2=l2804262.0 rmatrix=[-1.126837718137524] xmatrix=[-5936484.372339809]
new Reactor.sh_192 phases=1 bus1=l2841639.1 bus2=l2841639.0 rmatrix=[0] xmatrix=[-7050521.583606669]
new Reactor.sh_193 phases=1 bus1=l2708744.2 bus2=l2708744.0 rmatrix=[0.02047630860293787] xmatrix=[-1200371.66345999]
new Reactor.sh_194 phases=3 bus1=m1069519.1.2.3 bus2=m1069519.0.0.0 rmatrix=[0.03627617412134844 | -0.1307255622682309 -0.1127239952324625 | -0.03310043147986357 -0.05022010255018794 0.1977284564727987] xmatrix=[-2168947.16771003 | -795812.9685016798 -2023133.70284405 | -766830.5943585726 -860728.0815113448 -2163874.174056638]
new Reactor.sh_195 phases=1 bus1=l2897790.3 bus2=l2897790.0 rmatrix=[-0.142225486810959] xmatrix=[-6327156.981844511]
new Reactor.sh_196 phases=1 bus1=l2935566.3 bus2=l2935566.0 rmatrix=[-0.1194179173898927] xmatrix=[-11595370.68399648]
new Reactor.sh_197 phases=1 bus1=l3216337.1 bus2=l3216337.0 rmatrix=[0] xmatrix=[-14498207.9773402]
new Reactor.sh_198 phases=1 bus1=m1069548.3 bus2=m1069548.0 rmatrix=[0.8025625332131351] xmatrix=[-7515006.163938264]
new Reactor.sh_199 phases=1 bus1=l3120503.1 bus2=l3120503.0 rmatrix=[-0.7763422336996481] xmatrix=[-12069822.20496083]
new Reactor.sh_200 phases=3 bus1=m1089145.1.2.3 bus2=m1089145.0.0.0 rmatrix=[0.09445286076439113 | -0.06571513113248638 -0.287933503491248 | -0.009452560002981936 -0.1304111119786925 -0.05267769695945022] xmatrix=[-4397269.625663975 | -1567843.245492218 -4428671.088964754 | -1437205.944477936 -1695730.049951058 -4397264.528466]
new Reactor.sh_201 phases=3 bus1=l3215385.1.2.3 bus2=l3215385.0.0.0 rmatrix=[-2.065248993259079 | -1.707556332525482 -3.612528300067927 | -0.4949598518177409 -0.9137604676553113 1.072281752240242] xmatrix=[-22508315.7550444 | -8025323.608915363 -22669051.91461952 | -7356629.943380679 -8679938.300331833 -22508290.54910728]
...
